Version 4.1
SHEET 1 2244 916
WIRE 256 -80 176 -80
WIRE 368 -80 368 -144
WIRE 368 -80 320 -80
WIRE 464 -80 368 -80
WIRE 640 -80 528 -80
WIRE 752 -80 704 -80
WIRE 992 -80 752 -80
WIRE 1056 -80 992 -80
WIRE 1168 -80 1056 -80
WIRE 752 -64 752 -80
WIRE 1056 -64 1056 -80
WIRE 1616 -48 1536 -48
WIRE -576 0 -656 0
WIRE -480 0 -576 0
WIRE -368 0 -480 0
WIRE -176 0 -368 0
WIRE 176 0 48 0
WIRE 464 0 176 0
WIRE 496 0 496 -80
WIRE 1168 0 992 0
WIRE 176 16 176 0
WIRE 528 32 528 0
WIRE 656 32 528 32
WIRE 688 32 656 32
WIRE 752 32 752 0
WIRE 752 32 688 32
WIRE 848 32 752 32
WIRE 1616 32 1536 32
WIRE 688 48 688 32
WIRE -656 80 -656 0
WIRE 848 80 848 32
WIRE 992 80 992 64
WIRE 992 80 848 80
WIRE -480 96 -480 0
WIRE -368 96 -368 80
WIRE -176 96 -368 96
WIRE 176 96 48 96
WIRE 992 96 992 80
WIRE 1616 112 1536 112
WIRE -368 176 -368 96
WIRE 992 176 992 160
WIRE 1168 176 992 176
WIRE -176 192 -256 192
WIRE 112 192 48 192
WIRE 128 192 112 192
WIRE 272 192 208 192
WIRE 992 192 992 176
WIRE -256 208 -256 192
WIRE 112 208 112 192
WIRE 272 224 272 192
WIRE -656 288 -656 160
WIRE -480 288 -480 160
WIRE -480 288 -656 288
WIRE -368 288 -368 256
WIRE -368 288 -480 288
WIRE -256 288 -256 272
WIRE -256 288 -368 288
WIRE -176 288 -256 288
WIRE 112 288 48 288
WIRE 992 288 992 272
WIRE 1168 288 992 288
WIRE -656 304 -656 288
WIRE 256 496 176 496
WIRE 368 496 368 432
WIRE 368 496 320 496
WIRE 464 496 368 496
WIRE 640 496 528 496
WIRE 752 496 704 496
WIRE 848 496 752 496
WIRE 752 512 752 496
WIRE 848 528 848 496
WIRE -480 576 -576 576
WIRE -368 576 -480 576
WIRE -176 576 -368 576
WIRE 176 576 48 576
WIRE 464 576 176 576
WIRE 496 576 496 496
WIRE 176 592 176 576
WIRE 528 608 528 576
WIRE 656 608 528 608
WIRE 752 608 752 576
WIRE 752 608 656 608
WIRE 880 608 752 608
WIRE -480 672 -480 576
WIRE -368 672 -368 656
WIRE -176 672 -368 672
WIRE 176 672 48 672
WIRE -368 752 -368 672
WIRE -176 768 -256 768
WIRE 112 768 48 768
WIRE 128 768 112 768
WIRE 272 768 208 768
WIRE -256 784 -256 768
WIRE 112 784 112 768
WIRE 272 800 272 768
WIRE -480 864 -480 736
WIRE -368 864 -368 832
WIRE -368 864 -480 864
WIRE -256 864 -256 848
WIRE -256 864 -368 864
WIRE -176 864 -256 864
WIRE 112 864 48 864
WIRE -480 896 -480 864
FLAG -576 0 24V
FLAG 368 -144 24V
FLAG -656 304 0
FLAG 272 224 0
FLAG 1168 0 +15V
FLAG 1168 176 -15V
FLAG 1168 -80 +60V
FLAG 656 32 0V
FLAG 1536 32 0V
FLAG 1536 -48 +60V
FLAG 1168 288 -30V
FLAG 1536 112 -30V
FLAG 688 48 0
FLAG -576 576 24V
FLAG 368 432 24V
FLAG 272 800 0
FLAG 656 608 0V
FLAG 848 528 0
FLAG 880 608 -30V
FLAG -480 896 0
SYMBOL PowerProducts\\ADPL54203 -64 144 R0
SYMATTR InstName U1
SYMBOL ind 448 -96 R0
WINDOW 0 -34 42 Left 2
WINDOW 3 -37 81 Left 2
SYMATTR InstName L1
SYMATTR Value 9µ
SYMATTR Type ind
SYMATTR SpiceLine Rser=85m
SYMBOL ind 544 16 R180
WINDOW 0 -37 79 Left 2
WINDOW 3 -51 40 Left 2
SYMATTR InstName L2
SYMATTR Value 144µ
SYMATTR Type ind
SYMATTR SpiceLine Rser=370m
SYMBOL cap -496 96 R0
SYMATTR InstName C1
SYMATTR Value 10µ
SYMBOL voltage -656 64 R0
WINDOW 123 0 0 Left 0
WINDOW 39 24 124 Left 2
SYMATTR SpiceLine Rser=1r
SYMATTR InstName V1
SYMATTR Value 24
SYMBOL cap -272 208 R0
SYMATTR InstName C2
SYMATTR Value 1µ
SYMBOL res -384 160 R0
SYMATTR InstName R1
SYMATTR Value 48k
SYMBOL res -384 -16 R0
SYMATTR InstName R2
SYMATTR Value 680k
SYMBOL diode 640 -64 R270
WINDOW 0 32 32 VTop 2
WINDOW 3 0 32 VBottom 2
SYMATTR InstName D1
SYMATTR Value MBRS360
SYMBOL cap 736 -64 R0
SYMATTR InstName C4
SYMATTR Value 10µ
SYMBOL zener 1008 160 R180
WINDOW 0 24 64 Left 2
WINDOW 3 -143 37 Left 2
SYMATTR InstName D3
SYMATTR Value BZX84C15L
SYMBOL res 1008 288 R180
WINDOW 0 36 76 Left 2
WINDOW 3 36 40 Left 2
SYMATTR InstName R3
SYMATTR Value 1.5k
SYMBOL res 160 0 R0
SYMATTR InstName 205k
SYMATTR Value 180k
SYMBOL res 224 176 R90
WINDOW 0 0 56 VBottom 2
WINDOW 3 32 56 VTop 2
SYMATTR InstName R6
SYMATTR Value 10k
SYMBOL zener 1008 64 R180
WINDOW 0 28 66 Left 2
WINDOW 3 -124 5 Left 2
SYMATTR InstName D4
SYMATTR Value BZX84C15L
SYMBOL res 1008 -96 M0
SYMATTR InstName R7
SYMATTR Value 1.5k
SYMBOL res 1600 -64 R0
SYMATTR InstName R8
SYMATTR Value 500r
SYMBOL res 1600 16 R0
SYMATTR InstName R9
SYMATTR Value 200r
SYMBOL res 128 304 R180
WINDOW 0 36 76 Left 2
WINDOW 3 36 40 Left 2
SYMATTR InstName R5
SYMATTR Value 115k
SYMBOL res 160 -96 R0
SYMATTR InstName R10
SYMATTR Value 40r
SYMBOL cap 320 -96 R90
WINDOW 0 0 32 VBottom 2
WINDOW 3 32 32 VTop 2
SYMATTR InstName C3
SYMATTR Value 1n
SYMBOL PowerProducts\\ADPL54203 -64 720 R0
SYMATTR InstName U2
SYMBOL ind 448 480 R0
WINDOW 0 -34 42 Left 2
WINDOW 3 -37 81 Left 2
SYMATTR InstName L3
SYMATTR Value 9µ
SYMATTR Type ind
SYMATTR SpiceLine Rser=85m
SYMBOL ind 544 592 R180
WINDOW 0 -37 79 Left 2
WINDOW 3 -51 40 Left 2
SYMATTR InstName L4
SYMATTR Value 36µ
SYMATTR Type ind
SYMATTR SpiceLine Rser=370m
SYMBOL cap -496 672 R0
SYMATTR InstName C5
SYMATTR Value 10µ
SYMBOL cap -272 784 R0
SYMATTR InstName C7
SYMATTR Value 1µ
SYMBOL res -384 736 R0
SYMATTR InstName R4
SYMATTR Value 48k
SYMBOL res -384 560 R0
SYMATTR InstName R11
SYMATTR Value 680k
SYMBOL diode 640 512 R270
WINDOW 0 32 32 VTop 2
WINDOW 3 0 32 VBottom 2
SYMATTR InstName D2
SYMATTR Value MBRS360
SYMBOL cap 736 512 R0
SYMATTR InstName C8
SYMATTR Value 10µ
SYMBOL res 160 576 R0
SYMATTR InstName R12
SYMATTR Value 150k
SYMBOL res 224 752 R90
WINDOW 0 0 56 VBottom 2
WINDOW 3 32 56 VTop 2
SYMATTR InstName R13
SYMATTR Value 10k
SYMBOL res 128 880 R180
WINDOW 0 36 76 Left 2
WINDOW 3 36 40 Left 2
SYMATTR InstName R14
SYMATTR Value 115k
SYMBOL res 160 480 R0
SYMATTR InstName R15
SYMATTR Value 40r
SYMBOL cap 320 480 R90
WINDOW 0 0 32 VBottom 2
WINDOW 3 32 32 VTop 2
SYMATTR InstName C9
SYMATTR Value 1n
TEXT 424 -120 Left 2 !K1 L1 L2  1
TEXT 1008 232 Left 2 ;P=0.45W (30mA)
TEXT 1016 -40 Left 2 ;P=1.35W (30mA)
TEXT 1704 32 Left 2 ;LOAD
TEXT 472 -152 Left 2 ;1:4
TEXT -416 112 Left 2 ;UVLO at 20V (1.214V)
TEXT 1200 528 Left 2 !.tran 0 2s 0 100n startup
TEXT 1704 80 Left 2 ;150mA per rail
TEXT 1072 88 Left 2 ;zener 15V
TEXT 256 40 Left 2 ;140k - 60V
TEXT 256 64 Left 2 ;180k - 75V
TEXT 424 456 Left 2 !K2 L3 L4  1
TEXT 472 424 Left 2 ;1:2
TEXT -416 688 Left 2 ;UVLO at 20V (1.214V)
TEXT 432 624 Left 2 ;750313445
TEXT 424 72 Left 2 ;750313445
