Version 4.1
SHEET 1 1384 680
WIRE 144 -224 -240 -224
WIRE 240 -224 144 -224
WIRE 144 -192 144 -224
WIRE 240 -192 240 -224
WIRE -240 -128 -240 -224
WIRE -112 -128 -240 -128
WIRE 48 -128 -112 -128
WIRE 480 -128 336 -128
WIRE 608 -128 480 -128
WIRE 736 -128 608 -128
WIRE 480 -112 480 -128
WIRE 608 -112 608 -128
WIRE -240 -96 -240 -128
WIRE -112 -80 -112 -128
WIRE 48 -32 -16 -32
WIRE 480 -32 336 -32
WIRE -16 -16 -16 -32
WIRE -240 16 -240 -16
WIRE -112 16 -112 -16
WIRE -112 16 -240 16
WIRE -240 32 -240 16
WIRE -16 64 -16 48
WIRE 48 64 -16 64
WIRE 368 64 336 64
WIRE 480 64 480 48
WIRE 480 64 432 64
WIRE 608 64 608 -48
WIRE 608 64 480 64
WIRE 1136 64 1136 32
WIRE 1136 144 1056 144
WIRE 48 160 -128 160
WIRE 368 160 336 160
WIRE 480 160 432 160
WIRE 608 160 608 64
WIRE 608 160 480 160
WIRE 656 160 608 160
WIRE 480 176 480 160
WIRE 656 176 656 160
WIRE -128 256 -128 224
WIRE 48 256 -128 256
WIRE 480 256 336 256
WIRE 1136 256 1136 224
WIRE 608 272 608 160
WIRE -128 352 -128 256
WIRE 48 352 -128 352
WIRE 480 352 480 336
WIRE 480 352 336 352
WIRE 608 352 608 336
WIRE 608 352 480 352
WIRE 736 352 608 352
WIRE -128 384 -128 352
WIRE 192 464 192 416
FLAG -240 32 0
FLAG 192 464 0
FLAG -128 384 0
FLAG 656 176 0
FLAG -112 -128 24V
FLAG 736 -128 +15V
FLAG 736 352 -15V
FLAG 1136 32 +15V
FLAG 1136 256 -15V
FLAG 1056 144 0
SYMBOL PowerProducts\\LTC3260 192 112 R0
SYMATTR InstName U1
SYMBOL voltage -240 -112 R0
WINDOW 123 0 0 Left 0
WINDOW 39 24 44 Left 2
SYMATTR InstName V1
SYMATTR Value 24
SYMATTR SpiceLine Rser=5
SYMBOL cap 592 272 R0
SYMATTR InstName C1
SYMATTR Value 10µ
SYMBOL cap 592 -112 R0
SYMATTR InstName C2
SYMATTR Value 10µ
SYMBOL cap 432 144 R90
WINDOW 0 0 32 VBottom 2
WINDOW 3 32 32 VTop 2
SYMATTR InstName C3
SYMATTR Value 10n
SYMBOL cap 432 48 R90
WINDOW 0 0 32 VBottom 2
WINDOW 3 32 32 VTop 2
SYMATTR InstName C4
SYMATTR Value 10n
SYMBOL res 464 240 R0
SYMATTR InstName R1
SYMATTR Value 1.15Meg
SYMBOL res 464 160 R0
SYMATTR InstName R2
SYMATTR Value 100k
SYMBOL res 464 -48 R0
SYMATTR InstName R3
SYMATTR Value 100k
SYMBOL res 464 -128 R0
SYMATTR InstName R4
SYMATTR Value 1.15Meg
SYMBOL cap -32 -16 R0
SYMATTR InstName C5
SYMATTR Value 1µ
SYMBOL cap -128 -80 R0
SYMATTR InstName C6
SYMATTR Value 10µ
SYMBOL cap -112 160 M0
SYMATTR InstName C7
SYMATTR Value 10µ
SYMBOL res 1120 48 R0
SYMATTR InstName R5
SYMATTR Value 500r
SYMBOL res 1120 128 R0
SYMATTR InstName R6
SYMATTR Value 500r
TEXT -96 336 Left 2 ;f = 500khz
TEXT -104 240 Left 2 ;const f mode
TEXT 1232 120 Left 2 ;LOAD
TEXT 1216 168 Left 2 ;30mA per Rail
TEXT 608 -312 Left 2 !.tran 0 10m 0 startup
