Version 4.1
SHEET 1 1092 680
WIRE -224 -272 -224 -304
WIRE -144 -272 -224 -272
WIRE 768 -272 768 -304
WIRE 848 -272 768 -272
WIRE -224 -240 -224 -272
WIRE 768 -240 768 -272
WIRE 944 64 928 64
WIRE 1040 64 1024 64
WIRE -48 80 -64 80
WIRE -288 96 -400 96
WIRE -192 96 -288 96
WIRE -48 112 -64 112
WIRE 192 112 160 112
WIRE -192 128 -224 128
WIRE 16 144 -64 144
WIRE 192 144 96 144
WIRE 736 160 720 160
WIRE 192 176 176 176
WIRE 592 176 576 176
WIRE -400 192 -400 176
WIRE 736 192 720 192
WIRE -224 208 -224 128
WIRE 192 208 -224 208
WIRE 544 208 384 208
WIRE 592 208 544 208
WIRE 752 224 720 224
WIRE 832 224 752 224
WIRE 928 224 928 64
WIRE 928 224 912 224
WIRE 944 224 928 224
WIRE -224 240 -224 208
WIRE 1040 240 1040 64
WIRE 1040 240 1008 240
WIRE 1088 240 1040 240
WIRE 944 256 928 256
WIRE 928 336 928 256
WIRE -224 352 -224 320
WIRE 544 352 544 208
WIRE 624 352 544 352
WIRE 752 352 752 224
WIRE 752 352 704 352
WIRE 544 448 544 352
WIRE 640 448 544 448
WIRE 752 448 752 352
WIRE 752 448 704 448
WIRE 928 448 928 416
FLAG -400 192 0
FLAG 160 112 0
FLAG -144 -272 0
FLAG -224 -160 -15V
FLAG -224 -384 +15V
FLAG -48 80 +15V
FLAG 176 176 +15V
FLAG -224 352 0
FLAG 384 176 +15V
FLAG 576 176 0
FLAG 736 160 +15V
FLAG 736 192 -15V
FLAG -48 112 -15V
FLAG 848 -272 0
FLAG 768 -160 -30V
FLAG 768 -384 +60V
FLAG 976 208 +60V
FLAG 976 272 -30V
FLAG 928 448 0
FLAG -288 96 VIN
SYMBOL library\\OPAx197 -128 112 R0
SYMATTR InstName U1
SYMBOL library\\OPAx197 656 192 R0
SYMATTR InstName U2
SYMBOL library\\IL300 288 160 R0
SYMATTR InstName U3
SYMBOL res -240 224 R0
SYMATTR InstName R1
SYMATTR Value 10k
SYMBOL res 112 128 R90
WINDOW 0 0 56 VBottom 2
WINDOW 3 32 56 VTop 2
SYMATTR InstName R2
SYMATTR Value 220
SYMBOL voltage -224 -400 R0
WINDOW 123 0 0 Left 0
WINDOW 39 0 0 Left 0
SYMATTR InstName V2
SYMATTR Value 15V
SYMBOL voltage -224 -256 R0
SYMATTR InstName V3
SYMATTR Value 15V
SYMBOL res 720 336 R90
WINDOW 0 0 56 VBottom 2
WINDOW 3 32 56 VTop 2
SYMATTR InstName R3
SYMATTR Value 30k
SYMBOL cap 704 432 R90
WINDOW 0 0 32 VBottom 2
WINDOW 3 32 32 VTop 2
SYMATTR InstName C1
SYMATTR Value 1.2n
SYMBOL voltage -400 80 R0
WINDOW 123 0 0 Left 0
WINDOW 39 0 0 Left 0
SYMATTR InstName V1
SYMATTR Value SINE(1.5V 1.5V 1k)
SYMBOL OpAmps\\UniversalOpAmp 976 240 R0
SYMATTR InstName U4
SYMBOL voltage 768 -400 R0
WINDOW 123 0 0 Left 0
WINDOW 39 0 0 Left 0
SYMATTR InstName V4
SYMATTR Value 60V
SYMBOL voltage 768 -256 R0
SYMATTR InstName V5
SYMATTR Value 30V
SYMBOL res 928 208 R90
WINDOW 0 0 56 VBottom 2
WINDOW 3 32 56 VTop 2
SYMATTR InstName R4
SYMATTR Value 10k
SYMBOL res 1040 48 R90
WINDOW 0 0 56 VBottom 2
WINDOW 3 32 56 VTop 2
SYMATTR InstName R5
SYMATTR Value 100k
SYMBOL voltage 928 320 R0
SYMATTR InstName V6
SYMATTR Value -2.9V
TEXT -448 504 Left 2 !.tran 30m
